lig.pdb
 OpenBabel06102212053D

 28 31  0  0  0  0  0  0  0  0999 V2000
    6.0620   -0.3700   25.9140 C   0  0  0  0  0  0  0  0  0  0  0  0
    6.7750    0.1070   24.8270 C   0  0  0  0  0  0  0  0  0  0  0  0
    8.2370   -0.2760   22.8140 C   0  0  0  0  0  0  0  0  0  0  0  0
    7.4080   -2.1460   24.2970 C   0  0  0  0  0  0  0  0  0  0  0  0
    9.0630    0.8500   22.8750 C   0  0  0  0  0  0  0  0  0  0  0  0
    8.6680   -1.2510   19.1490 C   0  0  0  0  0  0  0  0  0  0  0  0
   10.6900    2.5310   21.8360 C   0  0  0  0  0  0  0  0  0  0  0  0
    9.7410   -1.8770   18.5760 C   0  0  0  0  0  0  0  0  0  0  0  0
    9.6060   -2.5440   17.4050 C   0  0  0  0  0  0  0  0  0  0  0  0
    8.3810   -2.5780   16.7880 C   0  0  0  0  0  0  0  0  0  0  0  0
    7.4240   -1.3050   18.4990 C   0  0  0  0  0  0  0  0  0  0  0  0
    9.7730    1.3130   21.7120 C   0  0  0  0  0  0  0  0  0  0  0  0
   10.7600    3.5690   20.9020 C   0  0  0  0  0  0  0  0  0  0  0  0
   11.6370    4.6220   21.1050 C   0  0  0  0  0  0  0  0  0  0  0  0
   12.4450    4.6580   22.2200 C   0  0  0  0  0  0  0  0  0  0  0  0
   12.3890    3.6490   23.1500 C   0  0  0  0  0  0  0  0  0  0  0  0
   11.5190    2.5890   22.9640 C   0  0  0  0  0  0  0  0  0  0  0  0
    9.9070    3.6020   19.6330 C   0  0  0  0  0  0  0  0  0  0  0  0
    6.0200   -1.7220   26.1980 C   0  0  0  0  0  0  0  0  0  0  0  0
    7.4570   -0.7880   24.0210 C   0  0  0  0  0  0  0  0  0  0  0  0
    6.6920   -2.6130   25.3850 C   0  0  0  0  0  0  0  0  0  0  0  0
    8.1210   -0.9780   21.5220 C   0  0  0  0  0  0  0  0  0  0  0  0
    9.6660    0.6150   20.4680 C   0  0  0  0  0  0  0  0  0  0  0  0
    8.8160   -0.5340   20.4000 N   0  0  0  0  0  0  0  0  0  0  0  0
    7.3220   -1.9710   17.3390 N   0  0  0  0  0  0  0  0  0  0  0  0
    9.2840    3.6380   18.6900 N   0  0  0  0  0  0  0  0  0  0  0  0
    7.3200   -2.1020   21.4270 O   0  0  0  0  0  0  0  0  0  0  0  0
    5.2000    0.7750   26.9680 Cl  0  0  0  0  0  0  0  0  0  0  0  0
  1 19  1  0  0  0  0
  1 28  1  0  0  0  0
  2  1  2  0  0  0  0
  3  5  2  0  0  0  0
  3 20  1  0  0  0  0
  4 21  1  0  0  0  0
  6 24  1  0  0  0  0
  7 17  2  0  0  0  0
  8  6  1  0  0  0  0
  9  8  2  0  0  0  0
 10 25  2  0  0  0  0
 10  9  1  0  0  0  0
 11  6  2  0  0  0  0
 12  7  1  0  0  0  0
 12  5  1  0  0  0  0
 13 14  2  0  0  0  0
 13  7  1  0  0  0  0
 14 15  1  0  0  0  0
 15 16  2  0  0  0  0
 17 16  1  0  0  0  0
 18 13  1  0  0  0  0
 20  4  2  0  0  0  0
 20  2  1  0  0  0  0
 21 19  2  0  0  0  0
 22  3  1  0  0  0  0
 23 12  2  0  0  0  0
 24 23  1  0  0  0  0
 24 22  1  0  0  0  0
 25 11  1  0  0  0  0
 26 18  3  0  0  0  0
 27 22  2  0  0  0  0
M  END
>  <REMARK>
 Selection 'resname XEY'

$$$$
